ptech18/manchester_models/network_1/Feeder_1/Master.dss
Clear

New object=circuit.manc

! from file: -----
!Edit Vsource.Source BasekV=11 pu=1.00  ISC3=3000  ISC1=2500
Edit Vsource.Source BasekV=11 pu=1.00  ISC3=3000000  ISC1=2500000
Redirect Transformers.txt
Redirect LineCode.txt
!Redirect LoadShapes.txt
Redirect Lines.txt
Redirect Loads_snap.txt
!Redirect Monitors.txt
! -------------------
new monitor.m1 element=line.line1

Set voltagebases=[11  .416]
Calcvoltagebases

solve
buscoords XY_Position.csv

!plot

!solve mode=faultstudy